<?xml version="1.0" encoding="UTF-8"?>
<!--
    routes.rou.xml — Fixed and Improved
    Changes from original:
      - Removed U-turn routes (original r13-r16: e.g. n0->center->n0)
      - Removed duplicate routes (original r17-r24 were exact duplicates of r0-r8)
      - Now 12 unique valid through-routes across the 4-way intersection
      - 500 vehicles spread evenly across all 12 routes
      - Departures spread over 0-99.8s (0.2s intervals = 5 vehicles/sec)
        giving a more realistic, sustained demand rather than a burst
-->
<routes xmlns:xsi="http://www.w3.org/2001/XMLSchema-instance"
        xsi:noNamespaceSchemaLocation="http://sumo.dlr.de/xsd/routes_file.xsd">

    <!-- Vehicle type: standard urban car -->
    <vType id="car" accel="2.6" decel="4.5" length="5" maxSpeed="13.9" sigma="0.5"/>

    <!--
        12 valid through-routes. No U-turns. No duplicates.
        4 entry directions x 3 valid exits each = 12 routes.
    -->
    <route id="r_W_E" edges="n0_center center_n1"/>
    <route id="r_W_N" edges="n0_center center_n3"/>
    <route id="r_W_S" edges="n0_center center_n2"/>
    <route id="r_E_W" edges="n1_center center_n0"/>
    <route id="r_E_N" edges="n1_center center_n3"/>
    <route id="r_E_S" edges="n1_center center_n2"/>
    <route id="r_S_N" edges="n2_center center_n3"/>
    <route id="r_S_E" edges="n2_center center_n1"/>
    <route id="r_S_W" edges="n2_center center_n0"/>
    <route id="r_N_S" edges="n3_center center_n2"/>
    <route id="r_N_E" edges="n3_center center_n1"/>
    <route id="r_N_W" edges="n3_center center_n0"/>

    <!-- 500 vehicles cycling through all 12 routes, departing every 0.2s -->
    <vehicle id="v0"   type="car" route="r_W_E"  depart="0.0"/>
    <vehicle id="v1"   type="car" route="r_E_W"  depart="0.2"/>
    <vehicle id="v2"   type="car" route="r_S_N"  depart="0.4"/>
    <vehicle id="v3"   type="car" route="r_N_S"  depart="0.6"/>
    <vehicle id="v4"   type="car" route="r_W_N"  depart="0.8"/>
    <vehicle id="v5"   type="car" route="r_S_E"  depart="1.0"/>
    <vehicle id="v6"   type="car" route="r_E_N"  depart="1.2"/>
    <vehicle id="v7"   type="car" route="r_N_W"  depart="1.4"/>
    <vehicle id="v8"   type="car" route="r_W_S"  depart="1.6"/>
    <vehicle id="v9"   type="car" route="r_S_W"  depart="1.8"/>
    <vehicle id="v10"  type="car" route="r_E_S"  depart="2.0"/>
    <vehicle id="v11"  type="car" route="r_N_E"  depart="2.2"/>
    <vehicle id="v12"  type="car" route="r_W_E"  depart="2.4"/>
    <vehicle id="v13"  type="car" route="r_E_W"  depart="2.6"/>
    <vehicle id="v14"  type="car" route="r_S_N"  depart="2.8"/>
    <vehicle id="v15"  type="car" route="r_N_S"  depart="3.0"/>
    <vehicle id="v16"  type="car" route="r_W_N"  depart="3.2"/>
    <vehicle id="v17"  type="car" route="r_S_E"  depart="3.4"/>
    <vehicle id="v18"  type="car" route="r_E_N"  depart="3.6"/>
    <vehicle id="v19"  type="car" route="r_N_W"  depart="3.8"/>
    <vehicle id="v20"  type="car" route="r_W_S"  depart="4.0"/>
    <vehicle id="v21"  type="car" route="r_S_W"  depart="4.2"/>
    <vehicle id="v22"  type="car" route="r_E_S"  depart="4.4"/>
    <vehicle id="v23"  type="car" route="r_N_E"  depart="4.6"/>
    <vehicle id="v24"  type="car" route="r_W_E"  depart="4.8"/>
    <vehicle id="v25"  type="car" route="r_E_W"  depart="5.0"/>
    <vehicle id="v26"  type="car" route="r_S_N"  depart="5.2"/>
    <vehicle id="v27"  type="car" route="r_N_S"  depart="5.4"/>
    <vehicle id="v28"  type="car" route="r_W_N"  depart="5.6"/>
    <vehicle id="v29"  type="car" route="r_S_E"  depart="5.8"/>
    <vehicle id="v30"  type="car" route="r_E_N"  depart="6.0"/>
    <vehicle id="v31"  type="car" route="r_N_W"  depart="6.2"/>
    <vehicle id="v32"  type="car" route="r_W_S"  depart="6.4"/>
    <vehicle id="v33"  type="car" route="r_S_W"  depart="6.6"/>
    <vehicle id="v34"  type="car" route="r_E_S"  depart="6.8"/>
    <vehicle id="v35"  type="car" route="r_N_E"  depart="7.0"/>
    <vehicle id="v36"  type="car" route="r_W_E"  depart="7.2"/>
    <vehicle id="v37"  type="car" route="r_E_W"  depart="7.4"/>
    <vehicle id="v38"  type="car" route="r_S_N"  depart="7.6"/>
    <vehicle id="v39"  type="car" route="r_N_S"  depart="7.8"/>
    <vehicle id="v40"  type="car" route="r_W_N"  depart="8.0"/>
    <vehicle id="v41"  type="car" route="r_S_E"  depart="8.2"/>
    <vehicle id="v42"  type="car" route="r_E_N"  depart="8.4"/>
    <vehicle id="v43"  type="car" route="r_N_W"  depart="8.6"/>
    <vehicle id="v44"  type="car" route="r_W_S"  depart="8.8"/>
    <vehicle id="v45"  type="car" route="r_S_W"  depart="9.0"/>
    <vehicle id="v46"  type="car" route="r_E_S"  depart="9.2"/>
    <vehicle id="v47"  type="car" route="r_N_E"  depart="9.4"/>
    <vehicle id="v48"  type="car" route="r_W_E"  depart="9.6"/>
    <vehicle id="v49"  type="car" route="r_E_W"  depart="9.8"/>
    <vehicle id="v50"  type="car" route="r_S_N"  depart="10.0"/>
    <vehicle id="v51"  type="car" route="r_N_S"  depart="10.2"/>
    <vehicle id="v52"  type="car" route="r_W_N"  depart="10.4"/>
    <vehicle id="v53"  type="car" route="r_S_E"  depart="10.6"/>
    <vehicle id="v54"  type="car" route="r_E_N"  depart="10.8"/>
    <vehicle id="v55"  type="car" route="r_N_W"  depart="11.0"/>
    <vehicle id="v56"  type="car" route="r_W_S"  depart="11.2"/>
    <vehicle id="v57"  type="car" route="r_S_W"  depart="11.4"/>
    <vehicle id="v58"  type="car" route="r_E_S"  depart="11.6"/>
    <vehicle id="v59"  type="car" route="r_N_E"  depart="11.8"/>
    <vehicle id="v60"  type="car" route="r_W_E"  depart="12.0"/>
    <vehicle id="v61"  type="car" route="r_E_W"  depart="12.2"/>
    <vehicle id="v62"  type="car" route="r_S_N"  depart="12.4"/>
    <vehicle id="v63"  type="car" route="r_N_S"  depart="12.6"/>
    <vehicle id="v64"  type="car" route="r_W_N"  depart="12.8"/>
    <vehicle id="v65"  type="car" route="r_S_E"  depart="13.0"/>
    <vehicle id="v66"  type="car" route="r_E_N"  depart="13.2"/>
    <vehicle id="v67"  type="car" route="r_N_W"  depart="13.4"/>
    <vehicle id="v68"  type="car" route="r_W_S"  depart="13.6"/>
    <vehicle id="v69"  type="car" route="r_S_W"  depart="13.8"/>
    <vehicle id="v70"  type="car" route="r_E_S"  depart="14.0"/>
    <vehicle id="v71"  type="car" route="r_N_E"  depart="14.2"/>
    <vehicle id="v72"  type="car" route="r_W_E"  depart="14.4"/>
    <vehicle id="v73"  type="car" route="r_E_W"  depart="14.6"/>
    <vehicle id="v74"  type="car" route="r_S_N"  depart="14.8"/>
    <vehicle id="v75"  type="car" route="r_N_S"  depart="15.0"/>
    <vehicle id="v76"  type="car" route="r_W_N"  depart="15.2"/>
    <vehicle id="v77"  type="car" route="r_S_E"  depart="15.4"/>
    <vehicle id="v78"  type="car" route="r_E_N"  depart="15.6"/>
    <vehicle id="v79"  type="car" route="r_N_W"  depart="15.8"/>
    <vehicle id="v80"  type="car" route="r_W_S"  depart="16.0"/>
    <vehicle id="v81"  type="car" route="r_S_W"  depart="16.2"/>
    <vehicle id="v82"  type="car" route="r_E_S"  depart="16.4"/>
    <vehicle id="v83"  type="car" route="r_N_E"  depart="16.6"/>
    <vehicle id="v84"  type="car" route="r_W_E"  depart="16.8"/>
    <vehicle id="v85"  type="car" route="r_E_W"  depart="17.0"/>
    <vehicle id="v86"  type="car" route="r_S_N"  depart="17.2"/>
    <vehicle id="v87"  type="car" route="r_N_S"  depart="17.4"/>
    <vehicle id="v88"  type="car" route="r_W_N"  depart="17.6"/>
    <vehicle id="v89"  type="car" route="r_S_E"  depart="17.8"/>
    <vehicle id="v90"  type="car" route="r_E_N"  depart="18.0"/>
    <vehicle id="v91"  type="car" route="r_N_W"  depart="18.2"/>
    <vehicle id="v92"  type="car" route="r_W_S"  depart="18.4"/>
    <vehicle id="v93"  type="car" route="r_S_W"  depart="18.6"/>
    <vehicle id="v94"  type="car" route="r_E_S"  depart="18.8"/>
    <vehicle id="v95"  type="car" route="r_N_E"  depart="19.0"/>
    <vehicle id="v96"  type="car" route="r_W_E"  depart="19.2"/>
    <vehicle id="v97"  type="car" route="r_E_W"  depart="19.4"/>
    <vehicle id="v98"  type="car" route="r_S_N"  depart="19.6"/>
    <vehicle id="v99"  type="car" route="r_N_S"  depart="19.8"/>
    <vehicle id="v100" type="car" route="r_W_N"  depart="20.0"/>
    <vehicle id="v101" type="car" route="r_S_E"  depart="20.2"/>
    <vehicle id="v102" type="car" route="r_E_N"  depart="20.4"/>
    <vehicle id="v103" type="car" route="r_N_W"  depart="20.6"/>
    <vehicle id="v104" type="car" route="r_W_S"  depart="20.8"/>
    <vehicle id="v105" type="car" route="r_S_W"  depart="21.0"/>
    <vehicle id="v106" type="car" route="r_E_S"  depart="21.2"/>
    <vehicle id="v107" type="car" route="r_N_E"  depart="21.4"/>
    <vehicle id="v108" type="car" route="r_W_E"  depart="21.6"/>
    <vehicle id="v109" type="car" route="r_E_W"  depart="21.8"/>
    <vehicle id="v110" type="car" route="r_S_N"  depart="22.0"/>
    <vehicle id="v111" type="car" route="r_N_S"  depart="22.2"/>
    <vehicle id="v112" type="car" route="r_W_N"  depart="22.4"/>
    <vehicle id="v113" type="car" route="r_S_E"  depart="22.6"/>
    <vehicle id="v114" type="car" route="r_E_N"  depart="22.8"/>
    <vehicle id="v115" type="car" route="r_N_W"  depart="23.0"/>
    <vehicle id="v116" type="car" route="r_W_S"  depart="23.2"/>
    <vehicle id="v117" type="car" route="r_S_W"  depart="23.4"/>
    <vehicle id="v118" type="car" route="r_E_S"  depart="23.6"/>
    <vehicle id="v119" type="car" route="r_N_E"  depart="23.8"/>
    <vehicle id="v120" type="car" route="r_W_E"  depart="24.0"/>
    <vehicle id="v121" type="car" route="r_E_W"  depart="24.2"/>
    <vehicle id="v122" type="car" route="r_S_N"  depart="24.4"/>
    <vehicle id="v123" type="car" route="r_N_S"  depart="24.6"/>
    <vehicle id="v124" type="car" route="r_W_N"  depart="24.8"/>
    <vehicle id="v125" type="car" route="r_S_E"  depart="25.0"/>
    <vehicle id="v126" type="car" route="r_E_N"  depart="25.2"/>
    <vehicle id="v127" type="car" route="r_N_W"  depart="25.4"/>
    <vehicle id="v128" type="car" route="r_W_S"  depart="25.6"/>
    <vehicle id="v129" type="car" route="r_S_W"  depart="25.8"/>
    <vehicle id="v130" type="car" route="r_E_S"  depart="26.0"/>
    <vehicle id="v131" type="car" route="r_N_E"  depart="26.2"/>
    <vehicle id="v132" type="car" route="r_W_E"  depart="26.4"/>
    <vehicle id="v133" type="car" route="r_E_W"  depart="26.6"/>
    <vehicle id="v134" type="car" route="r_S_N"  depart="26.8"/>
    <vehicle id="v135" type="car" route="r_N_S"  depart="27.0"/>
    <vehicle id="v136" type="car" route="r_W_N"  depart="27.2"/>
    <vehicle id="v137" type="car" route="r_S_E"  depart="27.4"/>
    <vehicle id="v138" type="car" route="r_E_N"  depart="27.6"/>
    <vehicle id="v139" type="car" route="r_N_W"  depart="27.8"/>
    <vehicle id="v140" type="car" route="r_W_S"  depart="28.0"/>
    <vehicle id="v141" type="car" route="r_S_W"  depart="28.2"/>
    <vehicle id="v142" type="car" route="r_E_S"  depart="28.4"/>
    <vehicle id="v143" type="car" route="r_N_E"  depart="28.6"/>
    <vehicle id="v144" type="car" route="r_W_E"  depart="28.8"/>
    <vehicle id="v145" type="car" route="r_E_W"  depart="29.0"/>
    <vehicle id="v146" type="car" route="r_S_N"  depart="29.2"/>
    <vehicle id="v147" type="car" route="r_N_S"  depart="29.4"/>
    <vehicle id="v148" type="car" route="r_W_N"  depart="29.6"/>
    <vehicle id="v149" type="car" route="r_S_E"  depart="29.8"/>
    <vehicle id="v150" type="car" route="r_E_N"  depart="30.0"/>
    <vehicle id="v151" type="car" route="r_N_W"  depart="30.2"/>
    <vehicle id="v152" type="car" route="r_W_S"  depart="30.4"/>
    <vehicle id="v153" type="car" route="r_S_W"  depart="30.6"/>
    <vehicle id="v154" type="car" route="r_E_S"  depart="30.8"/>
    <vehicle id="v155" type="car" route="r_N_E"  depart="31.0"/>
    <vehicle id="v156" type="car" route="r_W_E"  depart="31.2"/>
    <vehicle id="v157" type="car" route="r_E_W"  depart="31.4"/>
    <vehicle id="v158" type="car" route="r_S_N"  depart="31.6"/>
    <vehicle id="v159" type="car" route="r_N_S"  depart="31.8"/>
    <vehicle id="v160" type="car" route="r_W_N"  depart="32.0"/>
    <vehicle id="v161" type="car" route="r_S_E"  depart="32.2"/>
    <vehicle id="v162" type="car" route="r_E_N"  depart="32.4"/>
    <vehicle id="v163" type="car" route="r_N_W"  depart="32.6"/>
    <vehicle id="v164" type="car" route="r_W_S"  depart="32.8"/>
    <vehicle id="v165" type="car" route="r_S_W"  depart="33.0"/>
    <vehicle id="v166" type="car" route="r_E_S"  depart="33.2"/>
    <vehicle id="v167" type="car" route="r_N_E"  depart="33.4"/>
    <vehicle id="v168" type="car" route="r_W_E"  depart="33.6"/>
    <vehicle id="v169" type="car" route="r_E_W"  depart="33.8"/>
    <vehicle id="v170" type="car" route="r_S_N"  depart="34.0"/>
    <vehicle id="v171" type="car" route="r_N_S"  depart="34.2"/>
    <vehicle id="v172" type="car" route="r_W_N"  depart="34.4"/>
    <vehicle id="v173" type="car" route="r_S_E"  depart="34.6"/>
    <vehicle id="v174" type="car" route="r_E_N"  depart="34.8"/>
    <vehicle id="v175" type="car" route="r_N_W"  depart="35.0"/>
    <vehicle id="v176" type="car" route="r_W_S"  depart="35.2"/>
    <vehicle id="v177" type="car" route="r_S_W"  depart="35.4"/>
    <vehicle id="v178" type="car" route="r_E_S"  depart="35.6"/>
    <vehicle id="v179" type="car" route="r_N_E"  depart="35.8"/>
    <vehicle id="v180" type="car" route="r_W_E"  depart="36.0"/>
    <vehicle id="v181" type="car" route="r_E_W"  depart="36.2"/>
    <vehicle id="v182" type="car" route="r_S_N"  depart="36.4"/>
    <vehicle id="v183" type="car" route="r_N_S"  depart="36.6"/>
    <vehicle id="v184" type="car" route="r_W_N"  depart="36.8"/>
    <vehicle id="v185" type="car" route="r_S_E"  depart="37.0"/>
    <vehicle id="v186" type="car" route="r_E_N"  depart="37.2"/>
    <vehicle id="v187" type="car" route="r_N_W"  depart="37.4"/>
    <vehicle id="v188" type="car" route="r_W_S"  depart="37.6"/>
    <vehicle id="v189" type="car" route="r_S_W"  depart="37.8"/>
    <vehicle id="v190" type="car" route="r_E_S"  depart="38.0"/>
    <vehicle id="v191" type="car" route="r_N_E"  depart="38.2"/>
    <vehicle id="v192" type="car" route="r_W_E"  depart="38.4"/>
    <vehicle id="v193" type="car" route="r_E_W"  depart="38.6"/>
    <vehicle id="v194" type="car" route="r_S_N"  depart="38.8"/>
    <vehicle id="v195" type="car" route="r_N_S"  depart="39.0"/>
    <vehicle id="v196" type="car" route="r_W_N"  depart="39.2"/>
    <vehicle id="v197" type="car" route="r_S_E"  depart="39.4"/>
    <vehicle id="v198" type="car" route="r_E_N"  depart="39.6"/>
    <vehicle id="v199" type="car" route="r_N_W"  depart="39.8"/>
    <vehicle id="v200" type="car" route="r_W_S"  depart="40.0"/>
    <vehicle id="v201" type="car" route="r_S_W"  depart="40.2"/>
    <vehicle id="v202" type="car" route="r_E_S"  depart="40.4"/>
    <vehicle id="v203" type="car" route="r_N_E"  depart="40.6"/>
    <vehicle id="v204" type="car" route="r_W_E"  depart="40.8"/>
    <vehicle id="v205" type="car" route="r_E_W"  depart="41.0"/>
    <vehicle id="v206" type="car" route="r_S_N"  depart="41.2"/>
    <vehicle id="v207" type="car" route="r_N_S"  depart="41.4"/>
    <vehicle id="v208" type="car" route="r_W_N"  depart="41.6"/>
    <vehicle id="v209" type="car" route="r_S_E"  depart="41.8"/>
    <vehicle id="v210" type="car" route="r_E_N"  depart="42.0"/>
    <vehicle id="v211" type="car" route="r_N_W"  depart="42.2"/>
    <vehicle id="v212" type="car" route="r_W_S"  depart="42.4"/>
    <vehicle id="v213" type="car" route="r_S_W"  depart="42.6"/>
    <vehicle id="v214" type="car" route="r_E_S"  depart="42.8"/>
    <vehicle id="v215" type="car" route="r_N_E"  depart="43.0"/>
    <vehicle id="v216" type="car" route="r_W_E"  depart="43.2"/>
    <vehicle id="v217" type="car" route="r_E_W"  depart="43.4"/>
    <vehicle id="v218" type="car" route="r_S_N"  depart="43.6"/>
    <vehicle id="v219" type="car" route="r_N_S"  depart="43.8"/>
    <vehicle id="v220" type="car" route="r_W_N"  depart="44.0"/>
    <vehicle id="v221" type="car" route="r_S_E"  depart="44.2"/>
    <vehicle id="v222" type="car" route="r_E_N"  depart="44.4"/>
    <vehicle id="v223" type="car" route="r_N_W"  depart="44.6"/>
    <vehicle id="v224" type="car" route="r_W_S"  depart="44.8"/>
    <vehicle id="v225" type="car" route="r_S_W"  depart="45.0"/>
    <vehicle id="v226" type="car" route="r_E_S"  depart="45.2"/>
    <vehicle id="v227" type="car" route="r_N_E"  depart="45.4"/>
    <vehicle id="v228" type="car" route="r_W_E"  depart="45.6"/>
    <vehicle id="v229" type="car" route="r_E_W"  depart="45.8"/>
    <vehicle id="v230" type="car" route="r_S_N"  depart="46.0"/>
    <vehicle id="v231" type="car" route="r_N_S"  depart="46.2"/>
    <vehicle id="v232" type="car" route="r_W_N"  depart="46.4"/>
    <vehicle id="v233" type="car" route="r_S_E"  depart="46.6"/>
    <vehicle id="v234" type="car" route="r_E_N"  depart="46.8"/>
    <vehicle id="v235" type="car" route="r_N_W"  depart="47.0"/>
    <vehicle id="v236" type="car" route="r_W_S"  depart="47.2"/>
    <vehicle id="v237" type="car" route="r_S_W"  depart="47.4"/>
    <vehicle id="v238" type="car" route="r_E_S"  depart="47.6"/>
    <vehicle id="v239" type="car" route="r_N_E"  depart="47.8"/>
    <vehicle id="v240" type="car" route="r_W_E"  depart="48.0"/>
    <vehicle id="v241" type="car" route="r_E_W"  depart="48.2"/>
    <vehicle id="v242" type="car" route="r_S_N"  depart="48.4"/>
    <vehicle id="v243" type="car" route="r_N_S"  depart="48.6"/>
    <vehicle id="v244" type="car" route="r_W_N"  depart="48.8"/>
    <vehicle id="v245" type="car" route="r_S_E"  depart="49.0"/>
    <vehicle id="v246" type="car" route="r_E_N"  depart="49.2"/>
    <vehicle id="v247" type="car" route="r_N_W"  depart="49.4"/>
    <vehicle id="v248" type="car" route="r_W_S"  depart="49.6"/>
    <vehicle id="v249" type="car" route="r_S_W"  depart="49.8"/>
    <vehicle id="v250" type="car" route="r_E_S"  depart="50.0"/>
    <vehicle id="v251" type="car" route="r_N_E"  depart="50.2"/>
    <vehicle id="v252" type="car" route="r_W_E"  depart="50.4"/>
    <vehicle id="v253" type="car" route="r_E_W"  depart="50.6"/>
    <vehicle id="v254" type="car" route="r_S_N"  depart="50.8"/>
    <vehicle id="v255" type="car" route="r_N_S"  depart="51.0"/>
    <vehicle id="v256" type="car" route="r_W_N"  depart="51.2"/>
    <vehicle id="v257" type="car" route="r_S_E"  depart="51.4"/>
    <vehicle id="v258" type="car" route="r_E_N"  depart="51.6"/>
    <vehicle id="v259" type="car" route="r_N_W"  depart="51.8"/>
    <vehicle id="v260" type="car" route="r_W_S"  depart="52.0"/>
    <vehicle id="v261" type="car" route="r_S_W"  depart="52.2"/>
    <vehicle id="v262" type="car" route="r_E_S"  depart="52.4"/>
    <vehicle id="v263" type="car" route="r_N_E"  depart="52.6"/>
    <vehicle id="v264" type="car" route="r_W_E"  depart="52.8"/>
    <vehicle id="v265" type="car" route="r_E_W"  depart="53.0"/>
    <vehicle id="v266" type="car" route="r_S_N"  depart="53.2"/>
    <vehicle id="v267" type="car" route="r_N_S"  depart="53.4"/>
    <vehicle id="v268" type="car" route="r_W_N"  depart="53.6"/>
    <vehicle id="v269" type="car" route="r_S_E"  depart="53.8"/>
    <vehicle id="v270" type="car" route="r_E_N"  depart="54.0"/>
    <vehicle id="v271" type="car" route="r_N_W"  depart="54.2"/>
    <vehicle id="v272" type="car" route="r_W_S"  depart="54.4"/>
    <vehicle id="v273" type="car" route="r_S_W"  depart="54.6"/>
    <vehicle id="v274" type="car" route="r_E_S"  depart="54.8"/>
    <vehicle id="v275" type="car" route="r_N_E"  depart="55.0"/>
    <vehicle id="v276" type="car" route="r_W_E"  depart="55.2"/>
    <vehicle id="v277" type="car" route="r_E_W"  depart="55.4"/>
    <vehicle id="v278" type="car" route="r_S_N"  depart="55.6"/>
    <vehicle id="v279" type="car" route="r_N_S"  depart="55.8"/>
    <vehicle id="v280" type="car" route="r_W_N"  depart="56.0"/>
    <vehicle id="v281" type="car" route="r_S_E"  depart="56.2"/>
    <vehicle id="v282" type="car" route="r_E_N"  depart="56.4"/>
    <vehicle id="v283" type="car" route="r_N_W"  depart="56.6"/>
    <vehicle id="v284" type="car" route="r_W_S"  depart="56.8"/>
    <vehicle id="v285" type="car" route="r_S_W"  depart="57.0"/>
    <vehicle id="v286" type="car" route="r_E_S"  depart="57.2"/>
    <vehicle id="v287" type="car" route="r_N_E"  depart="57.4"/>
    <vehicle id="v288" type="car" route="r_W_E"  depart="57.6"/>
    <vehicle id="v289" type="car" route="r_E_W"  depart="57.8"/>
    <vehicle id="v290" type="car" route="r_S_N"  depart="58.0"/>
    <vehicle id="v291" type="car" route="r_N_S"  depart="58.2"/>
    <vehicle id="v292" type="car" route="r_W_N"  depart="58.4"/>
    <vehicle id="v293" type="car" route="r_S_E"  depart="58.6"/>
    <vehicle id="v294" type="car" route="r_E_N"  depart="58.8"/>
    <vehicle id="v295" type="car" route="r_N_W"  depart="59.0"/>
    <vehicle id="v296" type="car" route="r_W_S"  depart="59.2"/>
    <vehicle id="v297" type="car" route="r_S_W"  depart="59.4"/>
    <vehicle id="v298" type="car" route="r_E_S"  depart="59.6"/>
    <vehicle id="v299" type="car" route="r_N_E"  depart="59.8"/>
    <vehicle id="v300" type="car" route="r_W_E"  depart="60.0"/>
    <vehicle id="v301" type="car" route="r_E_W"  depart="60.2"/>
    <vehicle id="v302" type="car" route="r_S_N"  depart="60.4"/>
    <vehicle id="v303" type="car" route="r_N_S"  depart="60.6"/>
    <vehicle id="v304" type="car" route="r_W_N"  depart="60.8"/>
    <vehicle id="v305" type="car" route="r_S_E"  depart="61.0"/>
    <vehicle id="v306" type="car" route="r_E_N"  depart="61.2"/>
    <vehicle id="v307" type="car" route="r_N_W"  depart="61.4"/>
    <vehicle id="v308" type="car" route="r_W_S"  depart="61.6"/>
    <vehicle id="v309" type="car" route="r_S_W"  depart="61.8"/>
    <vehicle id="v310" type="car" route="r_E_S"  depart="62.0"/>
    <vehicle id="v311" type="car" route="r_N_E"  depart="62.2"/>
    <vehicle id="v312" type="car" route="r_W_E"  depart="62.4"/>
    <vehicle id="v313" type="car" route="r_E_W"  depart="62.6"/>
    <vehicle id="v314" type="car" route="r_S_N"  depart="62.8"/>
    <vehicle id="v315" type="car" route="r_N_S"  depart="63.0"/>
    <vehicle id="v316" type="car" route="r_W_N"  depart="63.2"/>
    <vehicle id="v317" type="car" route="r_S_E"  depart="63.4"/>
    <vehicle id="v318" type="car" route="r_E_N"  depart="63.6"/>
    <vehicle id="v319" type="car" route="r_N_W"  depart="63.8"/>
    <vehicle id="v320" type="car" route="r_W_S"  depart="64.0"/>
    <vehicle id="v321" type="car" route="r_S_W"  depart="64.2"/>
    <vehicle id="v322" type="car" route="r_E_S"  depart="64.4"/>
    <vehicle id="v323" type="car" route="r_N_E"  depart="64.6"/>
    <vehicle id="v324" type="car" route="r_W_E"  depart="64.8"/>
    <vehicle id="v325" type="car" route="r_E_W"  depart="65.0"/>
    <vehicle id="v326" type="car" route="r_S_N"  depart="65.2"/>
    <vehicle id="v327" type="car" route="r_N_S"  depart="65.4"/>
    <vehicle id="v328" type="car" route="r_W_N"  depart="65.6"/>
    <vehicle id="v329" type="car" route="r_S_E"  depart="65.8"/>
    <vehicle id="v330" type="car" route="r_E_N"  depart="66.0"/>
    <vehicle id="v331" type="car" route="r_N_W"  depart="66.2"/>
    <vehicle id="v332" type="car" route="r_W_S"  depart="66.4"/>
    <vehicle id="v333" type="car" route="r_S_W"  depart="66.6"/>
    <vehicle id="v334" type="car" route="r_E_S"  depart="66.8"/>
    <vehicle id="v335" type="car" route="r_N_E"  depart="67.0"/>
    <vehicle id="v336" type="car" route="r_W_E"  depart="67.2"/>
    <vehicle id="v337" type="car" route="r_E_W"  depart="67.4"/>
    <vehicle id="v338" type="car" route="r_S_N"  depart="67.6"/>
    <vehicle id="v339" type="car" route="r_N_S"  depart="67.8"/>
    <vehicle id="v340" type="car" route="r_W_N"  depart="68.0"/>
    <vehicle id="v341" type="car" route="r_S_E"  depart="68.2"/>
    <vehicle id="v342" type="car" route="r_E_N"  depart="68.4"/>
    <vehicle id="v343" type="car" route="r_N_W"  depart="68.6"/>
    <vehicle id="v344" type="car" route="r_W_S"  depart="68.8"/>
    <vehicle id="v345" type="car" route="r_S_W"  depart="69.0"/>
    <vehicle id="v346" type="car" route="r_E_S"  depart="69.2"/>
    <vehicle id="v347" type="car" route="r_N_E"  depart="69.4"/>
    <vehicle id="v348" type="car" route="r_W_E"  depart="69.6"/>
    <vehicle id="v349" type="car" route="r_E_W"  depart="69.8"/>
    <vehicle id="v350" type="car" route="r_S_N"  depart="70.0"/>
    <vehicle id="v351" type="car" route="r_N_S"  depart="70.2"/>
    <vehicle id="v352" type="car" route="r_W_N"  depart="70.4"/>
    <vehicle id="v353" type="car" route="r_S_E"  depart="70.6"/>
    <vehicle id="v354" type="car" route="r_E_N"  depart="70.8"/>
    <vehicle id="v355" type="car" route="r_N_W"  depart="71.0"/>
    <vehicle id="v356" type="car" route="r_W_S"  depart="71.2"/>
    <vehicle id="v357" type="car" route="r_S_W"  depart="71.4"/>
    <vehicle id="v358" type="car" route="r_E_S"  depart="71.6"/>
    <vehicle id="v359" type="car" route="r_N_E"  depart="71.8"/>
    <vehicle id="v360" type="car" route="r_W_E"  depart="72.0"/>
    <vehicle id="v361" type="car" route="r_E_W"  depart="72.2"/>
    <vehicle id="v362" type="car" route="r_S_N"  depart="72.4"/>
    <vehicle id="v363" type="car" route="r_N_S"  depart="72.6"/>
    <vehicle id="v364" type="car" route="r_W_N"  depart="72.8"/>
    <vehicle id="v365" type="car" route="r_S_E"  depart="73.0"/>
    <vehicle id="v366" type="car" route="r_E_N"  depart="73.2"/>
    <vehicle id="v367" type="car" route="r_N_W"  depart="73.4"/>
    <vehicle id="v368" type="car" route="r_W_S"  depart="73.6"/>
    <vehicle id="v369" type="car" route="r_S_W"  depart="73.8"/>
    <vehicle id="v370" type="car" route="r_E_S"  depart="74.0"/>
    <vehicle id="v371" type="car" route="r_N_E"  depart="74.2"/>
    <vehicle id="v372" type="car" route="r_W_E"  depart="74.4"/>
    <vehicle id="v373" type="car" route="r_E_W"  depart="74.6"/>
    <vehicle id="v374" type="car" route="r_S_N"  depart="74.8"/>
    <vehicle id="v375" type="car" route="r_N_S"  depart="75.0"/>
    <vehicle id="v376" type="car" route="r_W_N"  depart="75.2"/>
    <vehicle id="v377" type="car" route="r_S_E"  depart="75.4"/>
    <vehicle id="v378" type="car" route="r_E_N"  depart="75.6"/>
    <vehicle id="v379" type="car" route="r_N_W"  depart="75.8"/>
    <vehicle id="v380" type="car" route="r_W_S"  depart="76.0"/>
    <vehicle id="v381" type="car" route="r_S_W"  depart="76.2"/>
    <vehicle id="v382" type="car" route="r_E_S"  depart="76.4"/>
    <vehicle id="v383" type="car" route="r_N_E"  depart="76.6"/>
    <vehicle id="v384" type="car" route="r_W_E"  depart="76.8"/>
    <vehicle id="v385" type="car" route="r_E_W"  depart="77.0"/>
    <vehicle id="v386" type="car" route="r_S_N"  depart="77.2"/>
    <vehicle id="v387" type="car" route="r_N_S"  depart="77.4"/>
    <vehicle id="v388" type="car" route="r_W_N"  depart="77.6"/>
    <vehicle id="v389" type="car" route="r_S_E"  depart="77.8"/>
    <vehicle id="v390" type="car" route="r_E_N"  depart="78.0"/>
    <vehicle id="v391" type="car" route="r_N_W"  depart="78.2"/>
    <vehicle id="v392" type="car" route="r_W_S"  depart="78.4"/>
    <vehicle id="v393" type="car" route="r_S_W"  depart="78.6"/>
    <vehicle id="v394" type="car" route="r_E_S"  depart="78.8"/>
    <vehicle id="v395" type="car" route="r_N_E"  depart="79.0"/>
    <vehicle id="v396" type="car" route="r_W_E"  depart="79.2"/>
    <vehicle id="v397" type="car" route="r_E_W"  depart="79.4"/>
    <vehicle id="v398" type="car" route="r_S_N"  depart="79.6"/>
    <vehicle id="v399" type="car" route="r_N_S"  depart="79.8"/>
    <vehicle id="v400" type="car" route="r_W_N"  depart="80.0"/>
    <vehicle id="v401" type="car" route="r_S_E"  depart="80.2"/>
    <vehicle id="v402" type="car" route="r_E_N"  depart="80.4"/>
    <vehicle id="v403" type="car" route="r_N_W"  depart="80.6"/>
    <vehicle id="v404" type="car" route="r_W_S"  depart="80.8"/>
    <vehicle id="v405" type="car" route="r_S_W"  depart="81.0"/>
    <vehicle id="v406" type="car" route="r_E_S"  depart="81.2"/>
    <vehicle id="v407" type="car" route="r_N_E"  depart="81.4"/>
    <vehicle id="v408" type="car" route="r_W_E"  depart="81.6"/>
    <vehicle id="v409" type="car" route="r_E_W"  depart="81.8"/>
    <vehicle id="v410" type="car" route="r_S_N"  depart="82.0"/>
    <vehicle id="v411" type="car" route="r_N_S"  depart="82.2"/>
    <vehicle id="v412" type="car" route="r_W_N"  depart="82.4"/>
    <vehicle id="v413" type="car" route="r_S_E"  depart="82.6"/>
    <vehicle id="v414" type="car" route="r_E_N"  depart="82.8"/>
    <vehicle id="v415" type="car" route="r_N_W"  depart="83.0"/>
    <vehicle id="v416" type="car" route="r_W_S"  depart="83.2"/>
    <vehicle id="v417" type="car" route="r_S_W"  depart="83.4"/>
    <vehicle id="v418" type="car" route="r_E_S"  depart="83.6"/>
    <vehicle id="v419" type="car" route="r_N_E"  depart="83.8"/>
    <vehicle id="v420" type="car" route="r_W_E"  depart="84.0"/>
    <vehicle id="v421" type="car" route="r_E_W"  depart="84.2"/>
    <vehicle id="v422" type="car" route="r_S_N"  depart="84.4"/>
    <vehicle id="v423" type="car" route="r_N_S"  depart="84.6"/>
    <vehicle id="v424" type="car" route="r_W_N"  depart="84.8"/>
    <vehicle id="v425" type="car" route="r_S_E"  depart="85.0"/>
    <vehicle id="v426" type="car" route="r_E_N"  depart="85.2"/>
    <vehicle id="v427" type="car" route="r_N_W"  depart="85.4"/>
    <vehicle id="v428" type="car" route="r_W_S"  depart="85.6"/>
    <vehicle id="v429" type="car" route="r_S_W"  depart="85.8"/>
    <vehicle id="v430" type="car" route="r_E_S"  depart="86.0"/>
    <vehicle id="v431" type="car" route="r_N_E"  depart="86.2"/>
    <vehicle id="v432" type="car" route="r_W_E"  depart="86.4"/>
    <vehicle id="v433" type="car" route="r_E_W"  depart="86.6"/>
    <vehicle id="v434" type="car" route="r_S_N"  depart="86.8"/>
    <vehicle id="v435" type="car" route="r_N_S"  depart="87.0"/>