<?xml version="1.0" encoding="UTF-8"?>
<nodes xmlns:xsi="http://www.w3.org/2001/XMLSchema-instance" xsi:noNamespaceSchemaLocation="http://sumo.dlr.de/xsd/nodes_file.xsd">
    <node id="n0" x="-250" y="0" type="priority"/>
    <node id="n1" x="250" y="0" type="priority"/>
    <node id="n2" x="0" y="-250" type="priority"/>
    <node id="n3" x="0" y="250" type="priority"/>
    <node id="center" x="0" y="0" type="traffic_light"/>
</nodes>

 